
No compatibility mode selected!


Circuit: rms value calculation of a file.

binary raw file "01-ac_rms.control"
Doing analysis at TEMP = 27.000000 and TNOM = 27.000000

Warning: v1: no DC value, transient time 0 value used
No. of Data Columns : 3  

No. of Data Rows : 31
No. of Data Columns : 3  

Initial Transient Solution
--------------------------

Node                                   Voltage
----                                   -------
n1                                           0
v1#branch                                    0


No. of Data Rows : 108

Total analysis time (seconds) = 0

Total elapsed time (seconds) = 0.002 

Total DRAM available = 15822.699 MB.
DRAM currently available =  618.781 MB.
Maximum ngspice program size =   19.906 MB.
Current ngspice program size =   11.988 MB.

Shared ngspice pages =   10.367 MB.
Text (code) pages =    5.316 MB.
Stack = 0 bytes.
Library pages =    1.965 MB.

